[TITLE]
;;Project Title/Notes

[OPTIONS]
;;Option             Value
FLOW_UNITS           CMS
INFILTRATION         HORTON
FLOW_ROUTING         DYNWAVE
LINK_OFFSETS         DEPTH
MIN_SLOPE            0
ALLOW_PONDING        YES
SKIP_STEADY_STATE    NO

START_DATE           06/29/2017
START_TIME           00:01:00
REPORT_START_DATE    06/29/2017
REPORT_START_TIME    04:00:00
END_DATE             06/30/2017
END_TIME             00:00:00
SWEEP_START          06/29
SWEEP_END            06/30
DRY_DAYS             0
REPORT_STEP          00:01:00
WET_STEP             00:01:00
DRY_STEP             00:15:00
ROUTING_STEP         0:00:04 
RULE_STEP            00:00:00

INERTIAL_DAMPING     PARTIAL
NORMAL_FLOW_LIMITED  BOTH
FORCE_MAIN_EQUATION  D-W
VARIABLE_STEP        0.65
LENGTHENING_STEP     0
MIN_SURFAREA         1.167
MAX_TRIALS           20
HEAD_TOLERANCE       0.0015
SYS_FLOW_TOL         5
LAT_FLOW_TOL         5
MINIMUM_STEP         0.2
THREADS              2

[EVAPORATION]
;;Data Source    Parameters
;;-------------- ----------------
CONSTANT         0
DRY_ONLY         NO

[RAINGAGES]
;;Name           Format    Interval SCF      Source    
;;-------------- --------- ------ ------ ----------
rg5425           VOLUME    00:01    1        FILE       "rg_bellinge_Jun2010_Aug2021.dat" rg5425     MM   
rg5427           VOLUME    00:01    1        FILE       "rg_bellinge_Jun2010_Aug2021.dat" rg5427     MM   

[SUBCATCHMENTS]
;;Name           Rain Gage        Outlet           Area     %Imperv  Width    %Slope   CurbLen  SnowPack        
;;-------------- ---------------- ---------------- -------- -------- -------- -------- -------- ----------------
BellAa_1358_17896_6 rg5425           G72R84B          1.258    1.92     112.183  0.03     0                        
G72R272_8122     rg5425           G72R272          0.107    54.150000000000006 437.2480000000001 0.03     0                        
G72R280_8123     rg5425           G72R280          0.227    23.580000000000002 50.262   0.03     0                        
G72R290_8124     rg5425           G72R290          0.17     0.0      35.319   0.03     0                        
G72R291_8125     rg5425           G72R291          0.237    27.790000000000006 53.486   0.03     0                        
G72R292_8126     rg5425           G72R292          0.104    37.88    22.169   0.03     0                        
G72R293_8127     rg5425           G72R293          0.136    24.51000000000001 34.052   0.03     0                        
G72R294_8128     rg5425           G72R294          0.254    20.299999999999997 49.688   0.03     0                        
G72R295_8129     rg5425           G72R295          0.28800000000000003 33.19    106.869  0.03     0                        
G72R310_8130     rg5425           G72R310          0.226    40.62    31.364   0.03     0                        
G72R330_8131     rg5425           G72R330          0.384    43.98    334.601  0.03     0                        
G72R332_8132     rg5425           G72R332          0.16899999999999998 42.660000000000004 78.714   0.03     0                        
G72R333_8133     rg5425           G72R333          0.153    33.2     262.652  0.03     0                        
G72R335_8134     rg5425           G72R335          0.174    31.68    40.294   0.03     0                        
G72R33B_8135     rg5425           G72R33B          0.914    1.47     95.614   0.03     0                        
G72R340_8136     rg5425           G72R340          0.385    27.830000000000002 60.825   0.03     0                        
G72R360_8137     rg5425           G72R360          0.4920000000000001 30.0     135.36   0.03     0                        
G72R370_8138     rg5425           G72R370          0.695    43.22    78.836   0.03     0                        
G72R380_8139     rg5425           G72R380          0.462    44.01    37.963   0.03     0                        
G72R390_8140     rg5425           G72R390          0.583    41.88000000000001 43.542   0.03     0                        
G72R641_8141     rg5425           G72R641          0.049    58.400000000000006 34.329   0.03     0                        
G72R642_8142     rg5425           G72R642          0.131    0.0      26.308000000000003 0.03     0                        
G72R645_8143     rg5425           G72R645          0.134    18.869999999999997 41.653   0.03     0                        
G72R646_8144     rg5425           G72R646          0.13699999999999998 35.190000000000005 51.301   0.03     0                        
G72R647_8145     rg5425           G72R647          0.025    66.41    72.714   0.03     0                        
G72R648_8146     rg5425           G72R648          0.112    30.880000000000003 28.468000000000004 0.03     0                        
G72R649_8147     rg5425           G72R649          0.154    44.69    31.594   0.03     0                        
G72R650_8148     rg5425           G72R650          0.354    45.89000000000001 283.565  0.03     0                        
G72R651_8149     rg5425           G72R651          0.132    36.84    27.918000000000006 0.03     0                        
G72R653_8150     rg5425           G72R653          0.336    43.260000000000005 177.903  0.03     0                        
G72F316_7958     rg5425           G72F316          0.055    73.43000000000002 12.944   0.03     0                        
G72F317_7959     rg5425           G72F317          0.198    11.86    22.349   0.03     0                        
G72F317_7960     rg5425           G72F317          0.165    44.39000000000001 18.932   0.03     0                        
G72F317_7961     rg5425           G72F317          0.095    74.94    16.004   0.03     0                        
G72F317_7962     rg5425           G72F317          0.103    33.87    31.615   0.03     0                        
G72F320_7963     rg5425           G72F320          0.077    38.15    11.264   0.03     0                        
G72F320_7964     rg5425           G72F320          0.051    82.47    27.952   0.03     0                        
G72F330_7965     rg5425           G72F330          0.168    34.11    38.339   0.03     0                        
G72F331_7966     rg5425           G72F331          0.078    23.31    17.451   0.03     0                        
G72F332_7967     rg5425           G72F332          0.209    33.13000000000001 53.159   0.03     0                        
G72F333_7968     rg5425           G72F333          0.162    26.94    39.108   0.03     0                        
G72F334_7969     rg5425           G72F334          0.118    40.59    34.304   0.03     0                        
G72F335_7970     rg5425           G72F335          0.154    31.07    156.586  0.03     0                        
G72F336_7971     rg5425           G72F336          0.318    33.4     240.436  0.03     0                        
G72F337_7972     rg5425           G72F337          0.103    21.67    19.265   0.03     0                        
G72F337_7972_1   rg5425           G72F337          0.127    26.030000000000005 30.233   0.03     0                        
G60O280_7268     rg5427           G60O280          0.667    41.22000000000001 223.678  0.03     0                        
G60O320_7269     rg5427           G60O320          0.297    37.1     244.62   0.03     0                        
G60O340_7270     rg5427           G60O340          0.892    23.74    422.822  0.03     0                        
G60R011_7271     rg5427           G60R011          1.819    14.89    150.373  0.03     0                        
G60R281_7272     rg5427           G60R281          0.268    40.95000000000001 63.857   0.03     0                        
G60R282_7273     rg5427           G60R282          0.466    39.510000000000005 331.413  0.03     0                        
G60R290_7274     rg5427           G60R290          0.34600000000000003 43.300000000000004 355.842  0.03     0                        
G60R291_7275     rg5427           G60R292          0.379    41.68999999999999 315.764  0.03     0                        
G60R293_7277     rg5427           G60R293          0.386    40.43999999999999 184.401  0.03     0                        
G60R295_7278     rg5427           G60R295          0.423    0.0      457.595  0.03     0                        
G60R296_7279     rg5427           G60R296          0.301    39.8     318.455  0.03     0                        
G60R305_7280     rg5427           G60R307          0.6759999999999999 39.28999999999999 42.773   0.03     0                        
G60R307_7281     rg5427           G60R307          0.7      35.93    210.461  0.03     0                        
G60R308_7282     rg5427           G60R308          0.312    47.160000000000004 77.949   0.03     0                        
G60R321_7283     rg5427           G60R321          0.331    39.54    75.577   0.03     0                        
G60R322_7284     rg5427           G60R322          0.55     38.169999999999995 191.346  0.03     0                        
G60R323_7285     rg5427           G60R323          0.365    38.169999999999995 188.661  0.03     0                        
G60R342_7286     rg5427           G60R342          0.211    31.910000000000004 208.551  0.03     0                        
G60R343_7287     rg5427           G60R343          0.465    31.4     217.995  0.03     0                        
G60R380_7288     rg5427           G60R380          0.653    34.63    744.2389999999998 0.03     0                        
G60R381_7289     rg5427           G60R385          0.462    25.24    47.89100000000001 0.03     0                        
G60R382_7290     rg5427           G60R382          0.208    36.73    373.274  0.03     0                        
G60R383_7291     rg5427           G60R383          0.3670000000000001 32.0     490.854  0.03     0                        
G61F011_7292     rg5427           G61F011          0.45     37.589999999999996 131.34799999999998 0.03     0                        
G61F013_7293     rg5427           G61F013          0.238    32.78000000000001 58.981   0.03     0                        
G61F030_7294     rg5427           G61F030          0.457    41.63999999999999 86.425   0.03     0                        
G61F031_7295     rg5427           G61F031          0.376    38.7     131.40200000000002 0.03     0                        
G61F032_7296     rg5427           G61F032          0.564    34.45    569.51   0.03     0                        
G61F033_7297     rg5427           G61F033          0.5589999999999999 34.14    499.0    0.03     0                        
G61F034_7298     rg5427           G61F034          0.563    37.96000000000001 426.593  0.03     0                        
G61F035_7299     rg5427           G61F035          0.389    34.959999999999994 543.186  0.03     0                        
G61F041_7300     rg5427           G61F041          0.5660000000000001 35.84    152.063  0.03     0                        
G61F042_7301     rg5427           G61F042          0.57     33.77000000000001 148.035  0.03     0                        
G61F043_7302     rg5427           G61F043          0.555    39.75    147.376  0.03     0                        
G61F044_7303     rg5427           G61F044          0.376    40.959999999999994 247.98   0.03     0                        
G61F045_7304     rg5427           G61F045          0.386    40.71000000000001 1086.053 0.03     0                        
G61F060_7305     rg5427           G61F060          0.471    42.35999999999999 87.495   0.03     0                        
G61F061_7306     rg5427           G61F061          0.5529999999999999 35.419999999999995 147.984  0.03     0                        
G61F062_7307     rg5427           G61F062          0.552    36.95    164.009  0.03     0                        
G61F063_7308     rg5427           G61F063          0.564    34.84000000000001 100.635  0.03     0                        
G61F064_7309     rg5427           G61F064          0.389    37.26    422.492  0.03     0                        
G61F065_7310     rg5427           G61F065          0.385    37.27    1413.7120000000002 0.03     0                        
G61F080_7311     rg5427           G61F080          0.894    11.53    123.211  0.03     0                        
G61F120_7312     rg5427           G61F120          0.482    43.77000000000001 79.74    0.03     0                        
G61F130_7313     rg5427           G61F130          0.5760000000000001 29.56    49.333   0.03     0                        
G61F140_7314     rg5427           G61F140          0.119    42.75000000000001 30.334   0.03     0                        
G61F160_7315     rg5427           G61F160          0.434    55.38    98.448   0.03     0                        
G61F161_7316     rg5427           G61F161          0.7090000000000001 33.279999999999994 119.381  0.03     0                        
G61F162_7317     rg5427           G61F162          0.619    25.19    124.551  0.03     0                        
G61F163_7318     rg5427           G61F163          0.863    24.96    165.86   0.03     0                        
G61F164_7319     rg5427           G61F164          0.523    24.689999999999998 133.792  0.03     0                        
G61F170_7320     rg5427           G61F170          0.667    36.74000000000001 120.084  0.03     0                        
G61F180_7321     rg5427           G61F180          0.343    47.11000000000001 63.348   0.03     0                        
G61F210_7322     rg5427           G61F210          0.446    32.18    57.4     0.03     0                        
G61F221_7323     rg5427           G61F221          0.542    42.52000000000001 160.66299999999995 0.03     0                        
G61F222_7324     rg5427           G61F222          0.259    46.96000000000001 57.267   0.03     0                        
G61F223_7325     rg5427           G61F223          0.157    40.49000000000001 35.805   0.03     0                        
G61F224_7326     rg5427           G61F224          0.16399999999999998 43.05    36.775   0.03     0                        
G61F230_7327     rg5427           G61F230          0.397    30.830000000000002 357.50699999999995 0.03     0                        
G61F231_7328     rg5427           G61F231          0.583    35.3     244.517  0.03     0                        
G61F232_7329     rg5427           G61F232          0.185    36.94    38.27    0.03     0                        
G61F233_7330     rg5427           G61F233          0.172    42.67000000000001 38.494   0.03     0                        
G61F240_7331     rg5427           G61F240          0.617    32.42    992.713  0.03     0                        
G61F241_7332     rg5427           G61F241          0.438    40.01    93.589   0.03     0                        
G61F242_7333     rg5427           G61F242          0.247    43.559999999999995 45.24    0.03     0                        
G61F243_7334     rg5427           G61F243          0.087    38.60000000000001 19.643   0.03     0                        
G61F260_7335     rg5427           G61F260          0.529    34.46000000000001 238.14   0.03     0                        
G61F261_7336     rg5427           G61F261          0.182    38.15    125.354  0.03     0                        
G61F270_7337     rg5427           G61F270          0.472    41.81999999999999 101.827  0.03     0                        
G61F280_7338     rg5427           G61F280          0.171    42.08    38.511   0.03     0                        
G61F290_7339     rg5427           G61F290          0.141    54.169999999999995 28.061   0.03     0                        
G61F320_7340     rg5427           G61F320          0.433    37.1     313.314  0.03     0                        
G61F330_7341     rg5427           G61F330          0.364    41.53999999999999 57.36600000000001 0.03     0                        
G61F331_7342     rg5427           G61F331          0.409    19.84    302.185  0.03     0                        
G61F340_7343     rg5427           G61F340          0.466    42.93000000000001 57.072   0.03     0                        
G61F350_7344     rg5427           G61F350          0.687    47.06000000000001 118.328  0.03     0                        
G61F351_7345     rg5427           G61F351          0.187    52.26    39.234   0.03     0                        
G61F352_7346     rg5427           G61F352          0.168    27.2     36.148   0.03     0                        
G61F353_7347     rg5427           G61F353          0.6579999999999999 27.880000000000006 158.553  0.03     0                        
G61F354_7348     rg5427           G61F354          0.226    29.93    405.643  0.03     0                        
G61F360_7349     rg5427           G61K360          0.236    37.75000000000001 86.40100000000002 0.03     0                        
G61F362_7350     rg5427           G61F362          0.106    47.43    39.15    0.03     0                        
G61F370_7351     rg5427           G61F370          0.6809999999999999 25.640000000000004 314.507  0.03     0                        
G61F373_7352     rg5427           G61F373          0.4      26.570000000000004 140.733  0.03     0                        
G61F375_7353     rg5427           G61F375          0.141    17.3     34.954   0.03     0                        
G61F376_7354     rg5427           G61F376          0.126    18.819999999999997 29.005   0.03     0                        
G61F380_7355     rg5427           G61F380          0.602    21.06    202.545  0.03     0                        
G61F390_7356     rg5427           G61F390          0.265    22.210000000000004 152.444  0.03     0                        
G61F400_7357     rg5427           G61F400          0.22     28.020000000000003 82.169   0.03     0                        
G61F410_7358     rg5427           G61F410          0.797    26.3     225.865  0.03     0                        
G61F411_7359     rg5427           G61F411          0.263    18.660000000000004 59.767   0.03     0                        
G61F412_7360     rg5427           G61F412          0.473    31.89    137.371  0.03     0                        
G61F420_7361     rg5427           G61F420          0.58     37.34000000000001 225.096  0.03     0                        
G61F430_7362     rg5427           G61F430          0.8079999999999999 36.95    179.84400000000005 0.03     0                        
G61F440_7363     rg5427           G61F440          0.5770000000000001 38.18000000000001 97.737   0.03     0                        
G61F460_7364     rg5427           G61F460          0.561    36.339999999999996 88.709   0.03     0                        
G62F010_7416     rg5427           G62F010          0.5720000000000001 34.5     55.901   0.03     0                        
G62F011_7417     rg5427           G62F011          0.19     22.17    39.141   0.03     0                        
G62F012_7418     rg5427           G62F012          0.373    30.2     57.582   0.03     0                        
G62F014_7419     rg5427           G62F014          0.336    36.61    73.453   0.03     0                        
G62F015_7420     rg5427           G62F015          0.309    31.43    82.405   0.03     0                        
G62F020_7421     rg5427           G62F020          0.6      35.93    34.43    0.03     0                        
G62F022_7422     rg5427           G62F022          0.489    38.82000000000001 54.895   0.03     0                        
G62F023_7423     rg5427           G62F023          0.166    30.78    45.637   0.03     0                        
G62F060_7424     rg5427           G62F060          0.525    37.25    60.408   0.03     0                        
G62F070_7425     rg5427           G62F070          0.348    49.31999999999999 74.187   0.03     0                        
G62F071_7426     rg5427           G62F071          0.768    42.26    846.404  0.03     0                        
G62F072_7427     rg5427           G62F072          0.611    40.38    253.242  0.03     0                        
G62F073_7428     rg5427           G62F073          0.329    33.79    61.783   0.03     0                        
G62F090_7429     rg5427           G62F090          0.954    44.70000000000001 623.6030000000002 0.03     0                        
G62F091_7430     rg5427           G62F091          0.648    35.03    202.458  0.03     0                        
G62F092_7431     rg5427           G62F092          0.488    35.64    148.391  0.03     0                        
G62F093_7432     rg5427           G62F093          0.507    33.940000000000005 287.175  0.03     0                        
G62F094_7433     rg5427           G62F094          0.512    35.800000000000004 214.026  0.03     0                        
G62F095_7434     rg5427           G62F095          0.503    38.31000000000001 118.727  0.03     0                        
G62F110_7435     rg5427           G62F110          0.639    39.85000000000001 164.253  0.03     0                        
G62F112_7436     rg5427           G62F112          0.7929999999999999 35.45000000000001 98.103   0.03     0                        
G62F113_7437     rg5427           G62F113          0.453    36.18    235.645  0.03     0                        
G62F114_7438     rg5427           G62F114          0.348    40.660000000000004 171.687  0.03     0                        
G62F115_7439     rg5427           G62F115          0.195    48.99000000000001 42.136   0.03     0                        
G62F116_7440     rg5427           G62F116          0.38     47.56000000000001 158.194  0.03     0                        
G62F117_7441     rg5427           G62F117          0.175    38.73    36.156   0.03     0                        
G62F121_7442     rg5427           G62F121          0.6940000000000001 32.71    151.53   0.03     0                        
G62F122_7443     rg5427           G62F122          0.471    39.58    64.015   0.03     0                        
G62F130_7444     rg5427           G62F130          0.354    39.989999999999995 63.605   0.03     0                        
G62F140_7445     rg5427           G62F140          0.602    35.99000000000001 114.012  0.03     0                        
G62F160_7446     rg5427           G62F160          0.606    35.800000000000004 135.385  0.03     0                        
G62F170_7447     rg5427           G62F170          0.534    36.28    137.659  0.03     0                        
G62F180_7448     rg5427           G62F180          0.7959999999999999 35.14    96.73    0.03     0                        
G62F191_7449     rg5427           G62F191          0.463    42.08    103.59   0.03     0                        
G62F195_7450     rg5427           G62F195          0.329    54.43000000000001 71.763   0.03     0                        
G62F197_7451     rg5427           G62F197          0.428    46.74000000000001 93.269   0.03     0                        
G62F199_7452     rg5427           G62F199          0.319    42.96999999999999 214.877  0.03     0                        
G62F402_7453     rg5427           G62F402          0.15     48.78000000000001 117.614  0.03     0                        
G62F403_7454     rg5427           G62F403          0.207    60.60000000000001 50.333   0.03     0                        
G70F105_76812    rg5427           G70F105          1.946    4.21     144.606  0.03     0                        
G70F123_7682     rg5427           G70F123          0.56     26.600000000000005 79.493   0.03     0                        
G70F125_7683     rg5427           G70F125          0.29     21.53    126.287  0.03     0                        
G70F130_7684     rg5427           G70F130          0.093    41.15    12.492   0.03     0                        
G70F143_7685     rg5427           G70F143          0.685    39.67000000000001 204.567  0.03     0                        
G70F160_7686     rg5427           G70F160          0.118    26.690000000000005 38.812   0.03     0                        
G70F161_7687     rg5427           G70F161          0.532    34.12    144.07399999999996 0.03     0                        
G70F162_7688     rg5427           G70F162          0.271    41.28000000000001 98.654   0.03     0                        
G70F163_7689     rg5425           G70F163          0.294    39.27000000000001 257.05400000000003 0.03     0                        
G70F164_7690     rg5425           G70F164          0.313    35.76    65.14399999999999 0.03     0                        
G70F165_7691     rg5425           G70F165          0.366    31.03    244.426  0.03     0                        
G70F166_7692     rg5425           G70F166          0.075    35.730000000000004 19.792   0.03     0                        
G70F210_7693     rg5425           G70F210          0.457    39.00000000000001 107.271  0.03     0                        
G70F211_7694     rg5425           G70F211          0.503    35.11    42.349   0.03     0                        
G70F220_7695     rg5425           G70F220          0.397    34.46000000000001 145.283  0.03     0                        
G70F230_7696     rg5425           G70F230          0.244    29.49    82.988   0.03     0                        
G70F232_7697     rg5425           G70F232          1.008    36.53000000000001 319.934  0.03     0                        
G70F234_7698     rg5425           G70F234          0.568    36.980000000000004 344.185  0.03     0                        
G70F235_7699     rg5425           G70F235          0.261    32.050000000000004 127.892  0.03     0                        
G70F236_7700     rg5425           G70F236          0.154    37.34000000000001 77.396   0.03     0                        
G70F330_7701     rg5427           G70F330          0.365    35.72    184.006  0.03     0                        
G70F331_7702     rg5427           G70F331          0.35200000000000004 30.03    198.46   0.03     0                        
G70F332_7703     rg5427           G70F332          0.409    34.330000000000005 166.759  0.03     0                        
G70F333_7704     rg5427           G70F333          0.174    45.56999999999999 48.31399999999999 0.03     0                        
G70F334_7705     rg5427           G70F334          0.259    38.839999999999996 51.445   0.03     0                        
G70F335_7706     rg5425           G70F335          0.064    83.89    13.258   0.03     0                        
G70F340_7707     rg5427           G70F340          0.86     31.28    350.709  0.03     0                        
G70F341_7708     rg5427           G70F341          0.5579999999999999 4.8100000000000005 56.072   0.03     0                        
G70F370_7709     rg5427           G70F370          0.579    30.25000000000001 214.239  0.03     0                        
G70F371_7710     rg5427           G70F371          0.597    32.51    429.652  0.03     0                        
G70F373_7711     rg5427           G70F373          0.376    42.029999999999994 319.562  0.03     0                        
G70F374_7712     rg5427           G70F374          0.087    39.06999999999999 31.772   0.03     0                        
G70F375_7713     rg5427           G70F379          0.168    35.25000000000001 48.08600000000001 0.03     0                        
G70F377_7714     rg5427           G70F377          0.412    31.819999999999993 731.18   0.03     0                        
G70R193_7763     rg5425           G72F892          0.234    35.7     23.078000000000007 0.03     0                        
G70R261_7775     rg5427           G70F121          0.136    31.159999999999997 28.045   0.03     0                        
G70R262_7776     rg5427           G70F122          0.213    23.15    34.852   0.03     0                        
G71F041_7827     rg5425           G71F041          0.225    26.81    24.014   0.03     0                        
G71F041_7828     rg5425           G71F041          0.145    69.25000000000001 24.906   0.03     0                        
G71F046_7829     rg5425           G71F046          0.098    58.95000000000001 8.365    0.03     0                        
G71F047_7830     rg5425           G71F047          0.5670000000000001 18.480000000000004 168.726  0.03     0                        
G71F057_7831     rg5427           G71F058          0.029    0.27     7.122999999999998 0.03     0                        
G71F057_7832     rg5427           G71F058          0.104    76.59000000000002 34.016   0.03     0                        
G71F057_7833     rg5427           G71F058          0.018000000000000002 8.880000000000003 4.772    0.03     0                        
G71F058_7834     rg5427           G71F058          0.114    26.81    30.126   0.03     0                        
G71F058_7835     rg5427           G71F058          0.027000000000000003 27.96    9.986    0.03     0                        
G71F090_7836     rg5425           G71F090          0.232    4.42     48.167   0.03     0                        
G71F090_7836_1   rg5425           G71F090          0.289    13.989999999999998 53.733   0.03     0                        
G71F090_7837     rg5425           G71F090          0.105    59.68999999999999 32.381   0.03     0                        
G71F100_7838     rg5425           G71F100          0.139    0.03     36.718   0.03     0                        
G71F100_7838_1   rg5425           G71F100          0.223    12.609999999999998 24.052   0.03     0                        
G71F100_7839     rg5425           G71F100          0.069    58.68    19.13    0.03     0                        
G71F110_7840     rg5425           G71F110          0.129    17.47    31.107   0.03     0                        
G71F110_7840_1   rg5425           G71F110          0.245    22.009999999999998 30.595   0.03     0                        
G71F110_7841     rg5425           G71F110          0.08800000000000001 64.88    22.353   0.03     0                        